data_II
_symmetry_cell_setting    	tetragonal
_symmetry_space_group_name_H-M    	'P 4/m m m'
loop_
    _symmetry_equiv_pos_as_xyz
    x,y,z 
    -x,-y,z 
    -x,y,z 
    x,-y,z 
    -y,x,z 
    y,-x,z 
    y,x,z 
    -y,-x,z 
    -x,-y,-z 
    x,y,-z 
    x,-y,-z 
    -x,y,-z 
    y,-x,-z 
    -y,x,-z 
    -y,-x,-z 
    y,x,-z
_cell_length_a    	3.8780
_cell_length_b    	3.878
_cell_length_c    	11.818
_cell_angle_alpha    	90
_cell_angle_beta    	90
_cell_angle_gamma    	90
_cell_formula_units_Z     1
loop_
    _atom_site_label
    _atom_site_fract_x
    _atom_site_fract_y
    _atom_site_fract_z
    _atom_site_type_symbol
    Pr 0.5       0.5       0.5  Pr 
    Ba 0.5       0.5 0.19249 Ba 
    Cu1 0 0 0 Cu 
    Cu2 0 0 0.35607 Cu 
    O1 0 0 0.1531 O 
    O2 0 0.5 0 O 
    O3 0 0.5 0.3735 O 

